*SPEF "ieee 1481-1999"
*DESIGN "user_project_wrapper"
*DATE "11:11:11 Fri 11 11, 1111"
*VENDOR "OpenRCX"
*PROGRAM "Parallel Extraction"
*VERSION "1.0"
*DESIGN_FLOW "NAME_SCOPE LOCAL" "PIN_CAP NONE"
*DIVIDER /
*DELIMITER :
*BUS_DELIMITER []
*T_UNIT 1 NS
*C_UNIT 1 PF
*R_UNIT 1 OHM
*L_UNIT 1 HENRY

*NAME_MAP
*1 analog_io[0]
*2 analog_io[10]
*3 analog_io[11]
*4 analog_io[12]
*5 analog_io[13]
*6 analog_io[14]
*7 analog_io[15]
*8 analog_io[16]
*9 analog_io[17]
*10 analog_io[18]
*11 analog_io[19]
*12 analog_io[1]
*13 analog_io[20]
*14 analog_io[21]
*15 analog_io[22]
*16 analog_io[23]
*17 analog_io[24]
*18 analog_io[25]
*19 analog_io[26]
*20 analog_io[27]
*21 analog_io[28]
*22 analog_io[2]
*23 analog_io[3]
*24 analog_io[4]
*25 analog_io[5]
*26 analog_io[6]
*27 analog_io[7]
*28 analog_io[8]
*29 analog_io[9]
*30 io_in[0]
*31 io_in[10]
*32 io_in[11]
*33 io_in[12]
*34 io_in[13]
*35 io_in[14]
*36 io_in[15]
*37 io_in[16]
*38 io_in[17]
*39 io_in[18]
*40 io_in[19]
*41 io_in[1]
*42 io_in[20]
*43 io_in[21]
*44 io_in[22]
*45 io_in[23]
*46 io_in[24]
*47 io_in[25]
*48 io_in[26]
*49 io_in[27]
*50 io_in[28]
*51 io_in[29]
*52 io_in[2]
*53 io_in[30]
*54 io_in[31]
*55 io_in[32]
*56 io_in[33]
*57 io_in[34]
*58 io_in[35]
*59 io_in[36]
*60 io_in[37]
*61 io_in[3]
*62 io_in[4]
*63 io_in[5]
*64 io_in[6]
*65 io_in[7]
*66 io_in[8]
*67 io_in[9]
*68 wb_rst_i
*69 io_out[0]
*70 io_out[10]
*71 io_out[11]
*72 tx
*73 cm_done
*74 ct_done
*75 agent_1_done
*76 io_out[16]
*77 io_out[17]
*78 io_out[18]
*79 io_out[19]
*80 io_out[1]
*81 io_out[20]
*82 io_out[21]
*83 io_out[22]
*84 io_out[23]
*85 io_out[24]
*86 io_out[25]
*87 io_out[26]
*88 io_out[27]
*89 io_out[28]
*90 io_out[29]
*91 io_out[2]
*92 io_out[30]
*93 io_out[31]
*94 io_out[32]
*95 io_out[33]
*96 io_out[34]
*97 io_out[35]
*98 io_out[36]
*99 io_out[37]
*100 io_out[3]
*101 io_out[4]
*102 io_out[5]
*103 io_out[6]
*104 io_out[7]
*105 io_out[8]
*106 io_out[9]
*107 la_data_in[0]
*108 la_data_in[100]
*109 la_data_in[101]
*110 la_data_in[102]
*111 la_data_in[103]
*112 la_data_in[104]
*113 la_data_in[105]
*114 la_data_in[106]
*115 la_data_in[107]
*116 la_data_in[108]
*117 la_data_in[109]
*118 la_data_in[10]
*119 la_data_in[110]
*120 la_data_in[111]
*121 la_data_in[112]
*122 la_data_in[113]
*123 la_data_in[114]
*124 la_data_in[115]
*125 la_data_in[116]
*126 la_data_in[117]
*127 la_data_in[118]
*128 la_data_in[119]
*129 la_data_in[11]
*130 la_data_in[120]
*131 la_data_in[121]
*132 la_data_in[122]
*133 la_data_in[123]
*134 la_data_in[124]
*135 la_data_in[125]
*136 la_data_in[126]
*137 la_data_in[127]
*138 la_data_in[12]
*139 la_data_in[13]
*140 la_data_in[14]
*141 la_data_in[15]
*142 la_data_in[16]
*143 la_data_in[17]
*144 la_data_in[18]
*145 la_data_in[19]
*146 la_data_in[1]
*147 la_data_in[20]
*148 la_data_in[21]
*149 la_data_in[22]
*150 la_data_in[23]
*151 la_data_in[24]
*152 la_data_in[25]
*153 la_data_in[26]
*154 la_data_in[27]
*155 la_data_in[28]
*156 la_data_in[29]
*157 la_data_in[2]
*158 la_data_in[30]
*159 la_data_in[31]
*160 la_data_in[32]
*161 la_data_in[33]
*162 la_data_in[34]
*163 la_data_in[35]
*164 la_data_in[36]
*165 la_data_in[37]
*166 la_data_in[38]
*167 la_data_in[39]
*168 la_data_in[3]
*169 la_data_in[40]
*170 la_data_in[41]
*171 la_data_in[42]
*172 la_data_in[43]
*173 la_data_in[44]
*174 la_data_in[45]
*175 la_data_in[46]
*176 la_data_in[47]
*177 la_data_in[48]
*178 la_data_in[49]
*179 la_data_in[4]
*180 la_data_in[50]
*181 la_data_in[51]
*182 la_data_in[52]
*183 la_data_in[53]
*184 la_data_in[54]
*185 la_data_in[55]
*186 la_data_in[56]
*187 la_data_in[57]
*188 la_data_in[58]
*189 la_data_in[59]
*190 la_data_in[5]
*191 la_data_in[60]
*192 la_data_in[61]
*193 la_data_in[62]
*194 la_data_in[63]
*195 la_data_in[64]
*196 la_data_in[65]
*197 la_data_in[66]
*198 la_data_in[67]
*199 la_data_in[68]
*200 la_data_in[69]
*201 la_data_in[6]
*202 la_data_in[70]
*203 la_data_in[71]
*204 la_data_in[72]
*205 la_data_in[73]
*206 la_data_in[74]
*207 la_data_in[75]
*208 la_data_in[76]
*209 la_data_in[77]
*210 la_data_in[78]
*211 la_data_in[79]
*212 la_data_in[7]
*213 la_data_in[80]
*214 la_data_in[81]
*215 la_data_in[82]
*216 la_data_in[83]
*217 la_data_in[84]
*218 la_data_in[85]
*219 la_data_in[86]
*220 la_data_in[87]
*221 la_data_in[88]
*222 la_data_in[89]
*223 la_data_in[8]
*224 la_data_in[90]
*225 la_data_in[91]
*226 la_data_in[92]
*227 la_data_in[93]
*228 la_data_in[94]
*229 la_data_in[95]
*230 la_data_in[96]
*231 la_data_in[97]
*232 la_data_in[98]
*233 la_data_in[99]
*234 la_data_in[9]
*235 la_data_out[0]
*236 la_data_out[100]
*237 la_data_out[101]
*238 la_data_out[102]
*239 la_data_out[103]
*240 la_data_out[104]
*241 la_data_out[105]
*242 la_data_out[106]
*243 la_data_out[107]
*244 la_data_out[108]
*245 la_data_out[109]
*246 la_data_out[10]
*247 la_data_out[110]
*248 la_data_out[111]
*249 la_data_out[112]
*250 la_data_out[113]
*251 la_data_out[114]
*252 la_data_out[115]
*253 la_data_out[116]
*254 la_data_out[117]
*255 la_data_out[118]
*256 la_data_out[119]
*257 la_data_out[11]
*258 la_data_out[120]
*259 la_data_out[121]
*260 la_data_out[122]
*261 la_data_out[123]
*262 la_data_out[124]
*263 la_data_out[125]
*264 la_data_out[126]
*265 la_data_out[127]
*266 la_data_out[12]
*267 la_data_out[13]
*268 la_data_out[14]
*269 la_data_out[15]
*270 la_data_out[16]
*271 la_data_out[17]
*272 la_data_out[18]
*273 la_data_out[19]
*274 la_data_out[1]
*275 la_data_out[20]
*276 la_data_out[21]
*277 la_data_out[22]
*278 la_data_out[23]
*279 la_data_out[24]
*280 la_data_out[25]
*281 la_data_out[26]
*282 la_data_out[27]
*283 la_data_out[28]
*284 la_data_out[29]
*285 la_data_out[2]
*286 la_data_out[30]
*287 la_data_out[31]
*288 la_data_out[32]
*289 la_data_out[33]
*290 la_data_out[34]
*291 la_data_out[35]
*292 la_data_out[36]
*293 la_data_out[37]
*294 la_data_out[38]
*295 la_data_out[39]
*296 la_data_out[3]
*297 la_data_out[40]
*298 la_data_out[41]
*299 la_data_out[42]
*300 la_data_out[43]
*301 la_data_out[44]
*302 la_data_out[45]
*303 la_data_out[46]
*304 la_data_out[47]
*305 la_data_out[48]
*306 la_data_out[49]
*307 la_data_out[4]
*308 la_data_out[50]
*309 la_data_out[51]
*310 la_data_out[52]
*311 la_data_out[53]
*312 la_data_out[54]
*313 la_data_out[55]
*314 la_data_out[56]
*315 la_data_out[57]
*316 la_data_out[58]
*317 la_data_out[59]
*318 la_data_out[5]
*319 la_data_out[60]
*320 la_data_out[61]
*321 la_data_out[62]
*322 la_data_out[63]
*323 la_data_out[64]
*324 la_data_out[65]
*325 la_data_out[66]
*326 la_data_out[67]
*327 la_data_out[68]
*328 la_data_out[69]
*329 la_data_out[6]
*330 la_data_out[70]
*331 la_data_out[71]
*332 la_data_out[72]
*333 la_data_out[73]
*334 la_data_out[74]
*335 la_data_out[75]
*336 la_data_out[76]
*337 la_data_out[77]
*338 la_data_out[78]
*339 la_data_out[79]
*340 la_data_out[7]
*341 la_data_out[80]
*342 la_data_out[81]
*343 la_data_out[82]
*344 la_data_out[83]
*345 la_data_out[84]
*346 la_data_out[85]
*347 la_data_out[86]
*348 la_data_out[87]
*349 la_data_out[88]
*350 la_data_out[89]
*351 la_data_out[8]
*352 la_data_out[90]
*353 la_data_out[91]
*354 la_data_out[92]
*355 la_data_out[93]
*356 la_data_out[94]
*357 la_data_out[95]
*358 la_data_out[96]
*359 la_data_out[97]
*360 la_data_out[98]
*361 la_data_out[99]
*362 la_data_out[9]
*363 la_oenb[0]
*364 la_oenb[100]
*365 la_oenb[101]
*366 la_oenb[102]
*367 la_oenb[103]
*368 la_oenb[104]
*369 la_oenb[105]
*370 la_oenb[106]
*371 la_oenb[107]
*372 la_oenb[108]
*373 la_oenb[109]
*374 la_oenb[10]
*375 la_oenb[110]
*376 la_oenb[111]
*377 la_oenb[112]
*378 la_oenb[113]
*379 la_oenb[114]
*380 la_oenb[115]
*381 la_oenb[116]
*382 la_oenb[117]
*383 la_oenb[118]
*384 la_oenb[119]
*385 la_oenb[11]
*386 la_oenb[120]
*387 la_oenb[121]
*388 la_oenb[122]
*389 la_oenb[123]
*390 la_oenb[124]
*391 la_oenb[125]
*392 la_oenb[126]
*393 la_oenb[127]
*394 la_oenb[12]
*395 la_oenb[13]
*396 la_oenb[14]
*397 la_oenb[15]
*398 la_oenb[16]
*399 la_oenb[17]
*400 la_oenb[18]
*401 la_oenb[19]
*402 la_oenb[1]
*403 la_oenb[20]
*404 la_oenb[21]
*405 la_oenb[22]
*406 la_oenb[23]
*407 la_oenb[24]
*408 la_oenb[25]
*409 la_oenb[26]
*410 la_oenb[27]
*411 la_oenb[28]
*412 la_oenb[29]
*413 la_oenb[2]
*414 la_oenb[30]
*415 la_oenb[31]
*416 la_oenb[32]
*417 la_oenb[33]
*418 la_oenb[34]
*419 la_oenb[35]
*420 la_oenb[36]
*421 la_oenb[37]
*422 la_oenb[38]
*423 la_oenb[39]
*424 la_oenb[3]
*425 la_oenb[40]
*426 la_oenb[41]
*427 la_oenb[42]
*428 la_oenb[43]
*429 la_oenb[44]
*430 la_oenb[45]
*431 la_oenb[46]
*432 la_oenb[47]
*433 la_oenb[48]
*434 la_oenb[49]
*435 la_oenb[4]
*436 la_oenb[50]
*437 la_oenb[51]
*438 la_oenb[52]
*439 la_oenb[53]
*440 la_oenb[54]
*441 la_oenb[55]
*442 la_oenb[56]
*443 la_oenb[57]
*444 la_oenb[58]
*445 la_oenb[59]
*446 la_oenb[5]
*447 la_oenb[60]
*448 la_oenb[61]
*449 la_oenb[62]
*450 la_oenb[63]
*451 la_oenb[64]
*452 la_oenb[65]
*453 la_oenb[66]
*454 la_oenb[67]
*455 la_oenb[68]
*456 la_oenb[69]
*457 la_oenb[6]
*458 la_oenb[70]
*459 la_oenb[71]
*460 la_oenb[72]
*461 la_oenb[73]
*462 la_oenb[74]
*463 la_oenb[75]
*464 la_oenb[76]
*465 la_oenb[77]
*466 la_oenb[78]
*467 la_oenb[79]
*468 la_oenb[7]
*469 la_oenb[80]
*470 la_oenb[81]
*471 la_oenb[82]
*472 la_oenb[83]
*473 la_oenb[84]
*474 la_oenb[85]
*475 la_oenb[86]
*476 la_oenb[87]
*477 la_oenb[88]
*478 la_oenb[89]
*479 la_oenb[8]
*480 la_oenb[90]
*481 la_oenb[91]
*482 la_oenb[92]
*483 la_oenb[93]
*484 la_oenb[94]
*485 la_oenb[95]
*486 la_oenb[96]
*487 la_oenb[97]
*488 la_oenb[98]
*489 la_oenb[99]
*490 la_oenb[9]
*491 user_clock2
*492 user_irq[0]
*493 user_irq[1]
*494 user_irq[2]
*503 wb_clk_i
*504 wbs_ack_o
*505 wbs_adr_i[0]
*506 wbs_adr_i[10]
*507 wbs_adr_i[11]
*508 wbs_adr_i[12]
*509 wbs_adr_i[13]
*510 wbs_adr_i[14]
*511 wbs_adr_i[15]
*512 wbs_adr_i[16]
*513 wbs_adr_i[17]
*514 wbs_adr_i[18]
*515 wbs_adr_i[19]
*516 wbs_adr_i[1]
*517 wbs_adr_i[20]
*518 wbs_adr_i[21]
*519 wbs_adr_i[22]
*520 wbs_adr_i[23]
*521 wbs_adr_i[24]
*522 wbs_adr_i[25]
*523 wbs_adr_i[26]
*524 wbs_adr_i[27]
*525 wbs_adr_i[28]
*526 wbs_adr_i[29]
*527 wbs_adr_i[2]
*528 wbs_adr_i[30]
*529 wbs_adr_i[31]
*530 wbs_adr_i[3]
*531 wbs_adr_i[4]
*532 wbs_adr_i[5]
*533 wbs_adr_i[6]
*534 wbs_adr_i[7]
*535 wbs_adr_i[8]
*536 wbs_adr_i[9]
*537 wbs_cyc_i
*538 wbs_dat_i[0]
*539 wbs_dat_i[10]
*540 wbs_dat_i[11]
*541 wbs_dat_i[12]
*542 wbs_dat_i[13]
*543 wbs_dat_i[14]
*544 wbs_dat_i[15]
*545 wbs_dat_i[16]
*546 wbs_dat_i[17]
*547 wbs_dat_i[18]
*548 wbs_dat_i[19]
*549 wbs_dat_i[1]
*550 wbs_dat_i[20]
*551 wbs_dat_i[21]
*552 wbs_dat_i[22]
*553 wbs_dat_i[23]
*554 wbs_dat_i[24]
*555 wbs_dat_i[25]
*556 wbs_dat_i[26]
*557 wbs_dat_i[27]
*558 wbs_dat_i[28]
*559 wbs_dat_i[29]
*560 wbs_dat_i[2]
*561 wbs_dat_i[30]
*562 wbs_dat_i[31]
*563 wbs_dat_i[3]
*564 wbs_dat_i[4]
*565 wbs_dat_i[5]
*566 wbs_dat_i[6]
*567 wbs_dat_i[7]
*568 wbs_dat_i[8]
*569 wbs_dat_i[9]
*570 wbs_dat_o[0]
*571 wbs_dat_o[10]
*572 wbs_dat_o[11]
*573 wbs_dat_o[12]
*574 wbs_dat_o[13]
*575 wbs_dat_o[14]
*576 wbs_dat_o[15]
*577 wbs_dat_o[16]
*578 wbs_dat_o[17]
*579 wbs_dat_o[18]
*580 wbs_dat_o[19]
*581 wbs_dat_o[1]
*582 wbs_dat_o[20]
*583 wbs_dat_o[21]
*584 wbs_dat_o[22]
*585 wbs_dat_o[23]
*586 wbs_dat_o[24]
*587 wbs_dat_o[25]
*588 wbs_dat_o[26]
*589 wbs_dat_o[27]
*590 wbs_dat_o[28]
*591 wbs_dat_o[29]
*592 wbs_dat_o[2]
*593 wbs_dat_o[30]
*594 wbs_dat_o[31]
*595 wbs_dat_o[3]
*596 wbs_dat_o[4]
*597 wbs_dat_o[5]
*598 wbs_dat_o[6]
*599 wbs_dat_o[7]
*600 wbs_dat_o[8]
*601 wbs_dat_o[9]
*602 wbs_sel_i[0]
*603 wbs_sel_i[1]
*604 wbs_sel_i[2]
*605 wbs_sel_i[3]
*606 wbs_stb_i
*607 wbs_we_i
*608 agent_1_mem_ctrl_addr\[0\]
*609 agent_1_mem_ctrl_addr\[10\]
*610 agent_1_mem_ctrl_addr\[11\]
*611 agent_1_mem_ctrl_addr\[12\]
*612 agent_1_mem_ctrl_addr\[13\]
*613 agent_1_mem_ctrl_addr\[1\]
*614 agent_1_mem_ctrl_addr\[2\]
*615 agent_1_mem_ctrl_addr\[3\]
*616 agent_1_mem_ctrl_addr\[4\]
*617 agent_1_mem_ctrl_addr\[5\]
*618 agent_1_mem_ctrl_addr\[6\]
*619 agent_1_mem_ctrl_addr\[7\]
*620 agent_1_mem_ctrl_addr\[8\]
*621 agent_1_mem_ctrl_addr\[9\]
*622 agent_1_mem_ctrl_in\[0\]
*623 agent_1_mem_ctrl_in\[10\]
*624 agent_1_mem_ctrl_in\[11\]
*625 agent_1_mem_ctrl_in\[12\]
*626 agent_1_mem_ctrl_in\[13\]
*627 agent_1_mem_ctrl_in\[14\]
*628 agent_1_mem_ctrl_in\[15\]
*629 agent_1_mem_ctrl_in\[16\]
*630 agent_1_mem_ctrl_in\[17\]
*631 agent_1_mem_ctrl_in\[18\]
*632 agent_1_mem_ctrl_in\[19\]
*633 agent_1_mem_ctrl_in\[1\]
*634 agent_1_mem_ctrl_in\[20\]
*635 agent_1_mem_ctrl_in\[21\]
*636 agent_1_mem_ctrl_in\[22\]
*637 agent_1_mem_ctrl_in\[23\]
*638 agent_1_mem_ctrl_in\[24\]
*639 agent_1_mem_ctrl_in\[25\]
*640 agent_1_mem_ctrl_in\[26\]
*641 agent_1_mem_ctrl_in\[27\]
*642 agent_1_mem_ctrl_in\[28\]
*643 agent_1_mem_ctrl_in\[29\]
*644 agent_1_mem_ctrl_in\[2\]
*645 agent_1_mem_ctrl_in\[30\]
*646 agent_1_mem_ctrl_in\[31\]
*647 agent_1_mem_ctrl_in\[3\]
*648 agent_1_mem_ctrl_in\[4\]
*649 agent_1_mem_ctrl_in\[5\]
*650 agent_1_mem_ctrl_in\[6\]
*651 agent_1_mem_ctrl_in\[7\]
*652 agent_1_mem_ctrl_in\[8\]
*653 agent_1_mem_ctrl_in\[9\]
*654 agent_1_mem_ctrl_out\[0\]
*655 agent_1_mem_ctrl_out\[10\]
*656 agent_1_mem_ctrl_out\[11\]
*657 agent_1_mem_ctrl_out\[12\]
*658 agent_1_mem_ctrl_out\[13\]
*659 agent_1_mem_ctrl_out\[14\]
*660 agent_1_mem_ctrl_out\[15\]
*661 agent_1_mem_ctrl_out\[16\]
*662 agent_1_mem_ctrl_out\[17\]
*663 agent_1_mem_ctrl_out\[18\]
*664 agent_1_mem_ctrl_out\[19\]
*665 agent_1_mem_ctrl_out\[1\]
*666 agent_1_mem_ctrl_out\[20\]
*667 agent_1_mem_ctrl_out\[21\]
*668 agent_1_mem_ctrl_out\[22\]
*669 agent_1_mem_ctrl_out\[23\]
*670 agent_1_mem_ctrl_out\[24\]
*671 agent_1_mem_ctrl_out\[25\]
*672 agent_1_mem_ctrl_out\[26\]
*673 agent_1_mem_ctrl_out\[27\]
*674 agent_1_mem_ctrl_out\[28\]
*675 agent_1_mem_ctrl_out\[29\]
*676 agent_1_mem_ctrl_out\[2\]
*677 agent_1_mem_ctrl_out\[30\]
*678 agent_1_mem_ctrl_out\[31\]
*679 agent_1_mem_ctrl_out\[3\]
*680 agent_1_mem_ctrl_out\[4\]
*681 agent_1_mem_ctrl_out\[5\]
*682 agent_1_mem_ctrl_out\[6\]
*683 agent_1_mem_ctrl_out\[7\]
*684 agent_1_mem_ctrl_out\[8\]
*685 agent_1_mem_ctrl_out\[9\]
*686 agent_1_mem_ctrl_req
*687 agent_1_mem_ctrl_vld
*688 agent_1_mem_ctrl_we
*689 agent_1_sram0_csb0
*690 agent_1_sram0_dout0\[0\]
*691 agent_1_sram0_dout0\[10\]
*692 agent_1_sram0_dout0\[11\]
*693 agent_1_sram0_dout0\[12\]
*694 agent_1_sram0_dout0\[13\]
*695 agent_1_sram0_dout0\[14\]
*696 agent_1_sram0_dout0\[15\]
*697 agent_1_sram0_dout0\[16\]
*698 agent_1_sram0_dout0\[17\]
*699 agent_1_sram0_dout0\[18\]
*700 agent_1_sram0_dout0\[19\]
*701 agent_1_sram0_dout0\[1\]
*702 agent_1_sram0_dout0\[20\]
*703 agent_1_sram0_dout0\[21\]
*704 agent_1_sram0_dout0\[22\]
*705 agent_1_sram0_dout0\[23\]
*706 agent_1_sram0_dout0\[24\]
*707 agent_1_sram0_dout0\[25\]
*708 agent_1_sram0_dout0\[26\]
*709 agent_1_sram0_dout0\[27\]
*710 agent_1_sram0_dout0\[28\]
*711 agent_1_sram0_dout0\[29\]
*712 agent_1_sram0_dout0\[2\]
*713 agent_1_sram0_dout0\[30\]
*714 agent_1_sram0_dout0\[31\]
*715 agent_1_sram0_dout0\[3\]
*716 agent_1_sram0_dout0\[4\]
*717 agent_1_sram0_dout0\[5\]
*718 agent_1_sram0_dout0\[6\]
*719 agent_1_sram0_dout0\[7\]
*720 agent_1_sram0_dout0\[8\]
*721 agent_1_sram0_dout0\[9\]
*722 agent_1_sram0_web0
*723 agent_1_sram1_csb0
*724 agent_1_sram1_dout0\[0\]
*725 agent_1_sram1_dout0\[10\]
*726 agent_1_sram1_dout0\[11\]
*727 agent_1_sram1_dout0\[12\]
*728 agent_1_sram1_dout0\[13\]
*729 agent_1_sram1_dout0\[14\]
*730 agent_1_sram1_dout0\[15\]
*731 agent_1_sram1_dout0\[16\]
*732 agent_1_sram1_dout0\[17\]
*733 agent_1_sram1_dout0\[18\]
*734 agent_1_sram1_dout0\[19\]
*735 agent_1_sram1_dout0\[1\]
*736 agent_1_sram1_dout0\[20\]
*737 agent_1_sram1_dout0\[21\]
*738 agent_1_sram1_dout0\[22\]
*739 agent_1_sram1_dout0\[23\]
*740 agent_1_sram1_dout0\[24\]
*741 agent_1_sram1_dout0\[25\]
*742 agent_1_sram1_dout0\[26\]
*743 agent_1_sram1_dout0\[27\]
*744 agent_1_sram1_dout0\[28\]
*745 agent_1_sram1_dout0\[29\]
*746 agent_1_sram1_dout0\[2\]
*747 agent_1_sram1_dout0\[30\]
*748 agent_1_sram1_dout0\[31\]
*749 agent_1_sram1_dout0\[3\]
*750 agent_1_sram1_dout0\[4\]
*751 agent_1_sram1_dout0\[5\]
*752 agent_1_sram1_dout0\[6\]
*753 agent_1_sram1_dout0\[7\]
*754 agent_1_sram1_dout0\[8\]
*755 agent_1_sram1_dout0\[9\]
*756 agent_1_sram1_web0
*757 agent_1_sram2_csb0
*758 agent_1_sram2_dout0\[0\]
*759 agent_1_sram2_dout0\[10\]
*760 agent_1_sram2_dout0\[11\]
*761 agent_1_sram2_dout0\[12\]
*762 agent_1_sram2_dout0\[13\]
*763 agent_1_sram2_dout0\[14\]
*764 agent_1_sram2_dout0\[15\]
*765 agent_1_sram2_dout0\[16\]
*766 agent_1_sram2_dout0\[17\]
*767 agent_1_sram2_dout0\[18\]
*768 agent_1_sram2_dout0\[19\]
*769 agent_1_sram2_dout0\[1\]
*770 agent_1_sram2_dout0\[20\]
*771 agent_1_sram2_dout0\[21\]
*772 agent_1_sram2_dout0\[22\]
*773 agent_1_sram2_dout0\[23\]
*774 agent_1_sram2_dout0\[24\]
*775 agent_1_sram2_dout0\[25\]
*776 agent_1_sram2_dout0\[26\]
*777 agent_1_sram2_dout0\[27\]
*778 agent_1_sram2_dout0\[28\]
*779 agent_1_sram2_dout0\[29\]
*780 agent_1_sram2_dout0\[2\]
*781 agent_1_sram2_dout0\[30\]
*782 agent_1_sram2_dout0\[31\]
*783 agent_1_sram2_dout0\[3\]
*784 agent_1_sram2_dout0\[4\]
*785 agent_1_sram2_dout0\[5\]
*786 agent_1_sram2_dout0\[6\]
*787 agent_1_sram2_dout0\[7\]
*788 agent_1_sram2_dout0\[8\]
*789 agent_1_sram2_dout0\[9\]
*790 agent_1_sram2_web0
*791 agent_1_sram_comm_addr0\[0\]
*792 agent_1_sram_comm_addr0\[1\]
*793 agent_1_sram_comm_addr0\[2\]
*794 agent_1_sram_comm_addr0\[3\]
*795 agent_1_sram_comm_addr0\[4\]
*796 agent_1_sram_comm_addr0\[5\]
*797 agent_1_sram_comm_addr0\[6\]
*798 agent_1_sram_comm_addr0\[7\]
*799 agent_1_sram_comm_addr0\[8\]
*800 agent_1_sram_comm_din0\[0\]
*801 agent_1_sram_comm_din0\[10\]
*802 agent_1_sram_comm_din0\[11\]
*803 agent_1_sram_comm_din0\[12\]
*804 agent_1_sram_comm_din0\[13\]
*805 agent_1_sram_comm_din0\[14\]
*806 agent_1_sram_comm_din0\[15\]
*807 agent_1_sram_comm_din0\[16\]
*808 agent_1_sram_comm_din0\[17\]
*809 agent_1_sram_comm_din0\[18\]
*810 agent_1_sram_comm_din0\[19\]
*811 agent_1_sram_comm_din0\[1\]
*812 agent_1_sram_comm_din0\[20\]
*813 agent_1_sram_comm_din0\[21\]
*814 agent_1_sram_comm_din0\[22\]
*815 agent_1_sram_comm_din0\[23\]
*816 agent_1_sram_comm_din0\[24\]
*817 agent_1_sram_comm_din0\[25\]
*818 agent_1_sram_comm_din0\[26\]
*819 agent_1_sram_comm_din0\[27\]
*820 agent_1_sram_comm_din0\[28\]
*821 agent_1_sram_comm_din0\[29\]
*822 agent_1_sram_comm_din0\[2\]
*823 agent_1_sram_comm_din0\[30\]
*824 agent_1_sram_comm_din0\[31\]
*825 agent_1_sram_comm_din0\[3\]
*826 agent_1_sram_comm_din0\[4\]
*827 agent_1_sram_comm_din0\[5\]
*828 agent_1_sram_comm_din0\[6\]
*829 agent_1_sram_comm_din0\[7\]
*830 agent_1_sram_comm_din0\[8\]
*831 agent_1_sram_comm_din0\[9\]
*832 cm_mem_ctrl_addr\[0\]
*833 cm_mem_ctrl_addr\[10\]
*834 cm_mem_ctrl_addr\[11\]
*835 cm_mem_ctrl_addr\[12\]
*836 cm_mem_ctrl_addr\[13\]
*837 cm_mem_ctrl_addr\[1\]
*838 cm_mem_ctrl_addr\[2\]
*839 cm_mem_ctrl_addr\[3\]
*840 cm_mem_ctrl_addr\[4\]
*841 cm_mem_ctrl_addr\[5\]
*842 cm_mem_ctrl_addr\[6\]
*843 cm_mem_ctrl_addr\[7\]
*844 cm_mem_ctrl_addr\[8\]
*845 cm_mem_ctrl_addr\[9\]
*846 cm_mem_ctrl_in\[0\]
*847 cm_mem_ctrl_in\[10\]
*848 cm_mem_ctrl_in\[11\]
*849 cm_mem_ctrl_in\[12\]
*850 cm_mem_ctrl_in\[13\]
*851 cm_mem_ctrl_in\[14\]
*852 cm_mem_ctrl_in\[15\]
*853 cm_mem_ctrl_in\[16\]
*854 cm_mem_ctrl_in\[17\]
*855 cm_mem_ctrl_in\[18\]
*856 cm_mem_ctrl_in\[19\]
*857 cm_mem_ctrl_in\[1\]
*858 cm_mem_ctrl_in\[20\]
*859 cm_mem_ctrl_in\[21\]
*860 cm_mem_ctrl_in\[22\]
*861 cm_mem_ctrl_in\[23\]
*862 cm_mem_ctrl_in\[24\]
*863 cm_mem_ctrl_in\[25\]
*864 cm_mem_ctrl_in\[26\]
*865 cm_mem_ctrl_in\[27\]
*866 cm_mem_ctrl_in\[28\]
*867 cm_mem_ctrl_in\[29\]
*868 cm_mem_ctrl_in\[2\]
*869 cm_mem_ctrl_in\[30\]
*870 cm_mem_ctrl_in\[31\]
*871 cm_mem_ctrl_in\[3\]
*872 cm_mem_ctrl_in\[4\]
*873 cm_mem_ctrl_in\[5\]
*874 cm_mem_ctrl_in\[6\]
*875 cm_mem_ctrl_in\[7\]
*876 cm_mem_ctrl_in\[8\]
*877 cm_mem_ctrl_in\[9\]
*878 cm_mem_ctrl_out\[0\]
*879 cm_mem_ctrl_out\[10\]
*880 cm_mem_ctrl_out\[11\]
*881 cm_mem_ctrl_out\[12\]
*882 cm_mem_ctrl_out\[13\]
*883 cm_mem_ctrl_out\[14\]
*884 cm_mem_ctrl_out\[15\]
*885 cm_mem_ctrl_out\[16\]
*886 cm_mem_ctrl_out\[17\]
*887 cm_mem_ctrl_out\[18\]
*888 cm_mem_ctrl_out\[19\]
*889 cm_mem_ctrl_out\[1\]
*890 cm_mem_ctrl_out\[20\]
*891 cm_mem_ctrl_out\[21\]
*892 cm_mem_ctrl_out\[22\]
*893 cm_mem_ctrl_out\[23\]
*894 cm_mem_ctrl_out\[24\]
*895 cm_mem_ctrl_out\[25\]
*896 cm_mem_ctrl_out\[26\]
*897 cm_mem_ctrl_out\[27\]
*898 cm_mem_ctrl_out\[28\]
*899 cm_mem_ctrl_out\[29\]
*900 cm_mem_ctrl_out\[2\]
*901 cm_mem_ctrl_out\[30\]
*902 cm_mem_ctrl_out\[31\]
*903 cm_mem_ctrl_out\[3\]
*904 cm_mem_ctrl_out\[4\]
*905 cm_mem_ctrl_out\[5\]
*906 cm_mem_ctrl_out\[6\]
*907 cm_mem_ctrl_out\[7\]
*908 cm_mem_ctrl_out\[8\]
*909 cm_mem_ctrl_out\[9\]
*910 cm_mem_ctrl_req
*911 cm_mem_ctrl_vld
*912 cm_mem_ctrl_we
*913 cm_sram0_csb0
*914 cm_sram0_dout0\[0\]
*915 cm_sram0_dout0\[10\]
*916 cm_sram0_dout0\[11\]
*917 cm_sram0_dout0\[12\]
*918 cm_sram0_dout0\[13\]
*919 cm_sram0_dout0\[14\]
*920 cm_sram0_dout0\[15\]
*921 cm_sram0_dout0\[16\]
*922 cm_sram0_dout0\[17\]
*923 cm_sram0_dout0\[18\]
*924 cm_sram0_dout0\[19\]
*925 cm_sram0_dout0\[1\]
*926 cm_sram0_dout0\[20\]
*927 cm_sram0_dout0\[21\]
*928 cm_sram0_dout0\[22\]
*929 cm_sram0_dout0\[23\]
*930 cm_sram0_dout0\[24\]
*931 cm_sram0_dout0\[25\]
*932 cm_sram0_dout0\[26\]
*933 cm_sram0_dout0\[27\]
*934 cm_sram0_dout0\[28\]
*935 cm_sram0_dout0\[29\]
*936 cm_sram0_dout0\[2\]
*937 cm_sram0_dout0\[30\]
*938 cm_sram0_dout0\[31\]
*939 cm_sram0_dout0\[3\]
*940 cm_sram0_dout0\[4\]
*941 cm_sram0_dout0\[5\]
*942 cm_sram0_dout0\[6\]
*943 cm_sram0_dout0\[7\]
*944 cm_sram0_dout0\[8\]
*945 cm_sram0_dout0\[9\]
*946 cm_sram0_web0
*947 cm_sram1_csb0
*948 cm_sram1_dout0\[0\]
*949 cm_sram1_dout0\[10\]
*950 cm_sram1_dout0\[11\]
*951 cm_sram1_dout0\[12\]
*952 cm_sram1_dout0\[13\]
*953 cm_sram1_dout0\[14\]
*954 cm_sram1_dout0\[15\]
*955 cm_sram1_dout0\[16\]
*956 cm_sram1_dout0\[17\]
*957 cm_sram1_dout0\[18\]
*958 cm_sram1_dout0\[19\]
*959 cm_sram1_dout0\[1\]
*960 cm_sram1_dout0\[20\]
*961 cm_sram1_dout0\[21\]
*962 cm_sram1_dout0\[22\]
*963 cm_sram1_dout0\[23\]
*964 cm_sram1_dout0\[24\]
*965 cm_sram1_dout0\[25\]
*966 cm_sram1_dout0\[26\]
*967 cm_sram1_dout0\[27\]
*968 cm_sram1_dout0\[28\]
*969 cm_sram1_dout0\[29\]
*970 cm_sram1_dout0\[2\]
*971 cm_sram1_dout0\[30\]
*972 cm_sram1_dout0\[31\]
*973 cm_sram1_dout0\[3\]
*974 cm_sram1_dout0\[4\]
*975 cm_sram1_dout0\[5\]
*976 cm_sram1_dout0\[6\]
*977 cm_sram1_dout0\[7\]
*978 cm_sram1_dout0\[8\]
*979 cm_sram1_dout0\[9\]
*980 cm_sram1_web0
*981 cm_sram2_csb0
*982 cm_sram2_dout0\[0\]
*983 cm_sram2_dout0\[10\]
*984 cm_sram2_dout0\[11\]
*985 cm_sram2_dout0\[12\]
*986 cm_sram2_dout0\[13\]
*987 cm_sram2_dout0\[14\]
*988 cm_sram2_dout0\[15\]
*989 cm_sram2_dout0\[16\]
*990 cm_sram2_dout0\[17\]
*991 cm_sram2_dout0\[18\]
*992 cm_sram2_dout0\[19\]
*993 cm_sram2_dout0\[1\]
*994 cm_sram2_dout0\[20\]
*995 cm_sram2_dout0\[21\]
*996 cm_sram2_dout0\[22\]
*997 cm_sram2_dout0\[23\]
*998 cm_sram2_dout0\[24\]
*999 cm_sram2_dout0\[25\]
*1000 cm_sram2_dout0\[26\]
*1001 cm_sram2_dout0\[27\]
*1002 cm_sram2_dout0\[28\]
*1003 cm_sram2_dout0\[29\]
*1004 cm_sram2_dout0\[2\]
*1005 cm_sram2_dout0\[30\]
*1006 cm_sram2_dout0\[31\]
*1007 cm_sram2_dout0\[3\]
*1008 cm_sram2_dout0\[4\]
*1009 cm_sram2_dout0\[5\]
*1010 cm_sram2_dout0\[6\]
*1011 cm_sram2_dout0\[7\]
*1012 cm_sram2_dout0\[8\]
*1013 cm_sram2_dout0\[9\]
*1014 cm_sram2_web0
*1015 cm_sram3_csb0
*1016 cm_sram3_dout0\[0\]
*1017 cm_sram3_dout0\[10\]
*1018 cm_sram3_dout0\[11\]
*1019 cm_sram3_dout0\[12\]
*1020 cm_sram3_dout0\[13\]
*1021 cm_sram3_dout0\[14\]
*1022 cm_sram3_dout0\[15\]
*1023 cm_sram3_dout0\[16\]
*1024 cm_sram3_dout0\[17\]
*1025 cm_sram3_dout0\[18\]
*1026 cm_sram3_dout0\[19\]
*1027 cm_sram3_dout0\[1\]
*1028 cm_sram3_dout0\[20\]
*1029 cm_sram3_dout0\[21\]
*1030 cm_sram3_dout0\[22\]
*1031 cm_sram3_dout0\[23\]
*1032 cm_sram3_dout0\[24\]
*1033 cm_sram3_dout0\[25\]
*1034 cm_sram3_dout0\[26\]
*1035 cm_sram3_dout0\[27\]
*1036 cm_sram3_dout0\[28\]
*1037 cm_sram3_dout0\[29\]
*1038 cm_sram3_dout0\[2\]
*1039 cm_sram3_dout0\[30\]
*1040 cm_sram3_dout0\[31\]
*1041 cm_sram3_dout0\[3\]
*1042 cm_sram3_dout0\[4\]
*1043 cm_sram3_dout0\[5\]
*1044 cm_sram3_dout0\[6\]
*1045 cm_sram3_dout0\[7\]
*1046 cm_sram3_dout0\[8\]
*1047 cm_sram3_dout0\[9\]
*1048 cm_sram3_web0
*1049 cm_sram_comm_addr0\[0\]
*1050 cm_sram_comm_addr0\[1\]
*1051 cm_sram_comm_addr0\[2\]
*1052 cm_sram_comm_addr0\[3\]
*1053 cm_sram_comm_addr0\[4\]
*1054 cm_sram_comm_addr0\[5\]
*1055 cm_sram_comm_addr0\[6\]
*1056 cm_sram_comm_addr0\[7\]
*1057 cm_sram_comm_addr0\[8\]
*1058 cm_sram_comm_din0\[0\]
*1059 cm_sram_comm_din0\[10\]
*1060 cm_sram_comm_din0\[11\]
*1061 cm_sram_comm_din0\[12\]
*1062 cm_sram_comm_din0\[13\]
*1063 cm_sram_comm_din0\[14\]
*1064 cm_sram_comm_din0\[15\]
*1065 cm_sram_comm_din0\[16\]
*1066 cm_sram_comm_din0\[17\]
*1067 cm_sram_comm_din0\[18\]
*1068 cm_sram_comm_din0\[19\]
*1069 cm_sram_comm_din0\[1\]
*1070 cm_sram_comm_din0\[20\]
*1071 cm_sram_comm_din0\[21\]
*1072 cm_sram_comm_din0\[22\]
*1073 cm_sram_comm_din0\[23\]
*1074 cm_sram_comm_din0\[24\]
*1075 cm_sram_comm_din0\[25\]
*1076 cm_sram_comm_din0\[26\]
*1077 cm_sram_comm_din0\[27\]
*1078 cm_sram_comm_din0\[28\]
*1079 cm_sram_comm_din0\[29\]
*1080 cm_sram_comm_din0\[2\]
*1081 cm_sram_comm_din0\[30\]
*1082 cm_sram_comm_din0\[31\]
*1083 cm_sram_comm_din0\[3\]
*1084 cm_sram_comm_din0\[4\]
*1085 cm_sram_comm_din0\[5\]
*1086 cm_sram_comm_din0\[6\]
*1087 cm_sram_comm_din0\[7\]
*1088 cm_sram_comm_din0\[8\]
*1089 cm_sram_comm_din0\[9\]
*1090 ct_mem_ctrl_addr\[0\]
*1091 ct_mem_ctrl_addr\[10\]
*1092 ct_mem_ctrl_addr\[11\]
*1093 ct_mem_ctrl_addr\[12\]
*1094 ct_mem_ctrl_addr\[13\]
*1095 ct_mem_ctrl_addr\[1\]
*1096 ct_mem_ctrl_addr\[2\]
*1097 ct_mem_ctrl_addr\[3\]
*1098 ct_mem_ctrl_addr\[4\]
*1099 ct_mem_ctrl_addr\[5\]
*1100 ct_mem_ctrl_addr\[6\]
*1101 ct_mem_ctrl_addr\[7\]
*1102 ct_mem_ctrl_addr\[8\]
*1103 ct_mem_ctrl_addr\[9\]
*1104 ct_mem_ctrl_in\[0\]
*1105 ct_mem_ctrl_in\[10\]
*1106 ct_mem_ctrl_in\[11\]
*1107 ct_mem_ctrl_in\[12\]
*1108 ct_mem_ctrl_in\[13\]
*1109 ct_mem_ctrl_in\[14\]
*1110 ct_mem_ctrl_in\[15\]
*1111 ct_mem_ctrl_in\[16\]
*1112 ct_mem_ctrl_in\[17\]
*1113 ct_mem_ctrl_in\[18\]
*1114 ct_mem_ctrl_in\[19\]
*1115 ct_mem_ctrl_in\[1\]
*1116 ct_mem_ctrl_in\[20\]
*1117 ct_mem_ctrl_in\[21\]
*1118 ct_mem_ctrl_in\[22\]
*1119 ct_mem_ctrl_in\[23\]
*1120 ct_mem_ctrl_in\[24\]
*1121 ct_mem_ctrl_in\[25\]
*1122 ct_mem_ctrl_in\[26\]
*1123 ct_mem_ctrl_in\[27\]
*1124 ct_mem_ctrl_in\[28\]
*1125 ct_mem_ctrl_in\[29\]
*1126 ct_mem_ctrl_in\[2\]
*1127 ct_mem_ctrl_in\[30\]
*1128 ct_mem_ctrl_in\[31\]
*1129 ct_mem_ctrl_in\[3\]
*1130 ct_mem_ctrl_in\[4\]
*1131 ct_mem_ctrl_in\[5\]
*1132 ct_mem_ctrl_in\[6\]
*1133 ct_mem_ctrl_in\[7\]
*1134 ct_mem_ctrl_in\[8\]
*1135 ct_mem_ctrl_in\[9\]
*1136 ct_mem_ctrl_out\[0\]
*1137 ct_mem_ctrl_out\[10\]
*1138 ct_mem_ctrl_out\[11\]
*1139 ct_mem_ctrl_out\[12\]
*1140 ct_mem_ctrl_out\[13\]
*1141 ct_mem_ctrl_out\[14\]
*1142 ct_mem_ctrl_out\[15\]
*1143 ct_mem_ctrl_out\[16\]
*1144 ct_mem_ctrl_out\[17\]
*1145 ct_mem_ctrl_out\[18\]
*1146 ct_mem_ctrl_out\[19\]
*1147 ct_mem_ctrl_out\[1\]
*1148 ct_mem_ctrl_out\[20\]
*1149 ct_mem_ctrl_out\[21\]
*1150 ct_mem_ctrl_out\[22\]
*1151 ct_mem_ctrl_out\[23\]
*1152 ct_mem_ctrl_out\[24\]
*1153 ct_mem_ctrl_out\[25\]
*1154 ct_mem_ctrl_out\[26\]
*1155 ct_mem_ctrl_out\[27\]
*1156 ct_mem_ctrl_out\[28\]
*1157 ct_mem_ctrl_out\[29\]
*1158 ct_mem_ctrl_out\[2\]
*1159 ct_mem_ctrl_out\[30\]
*1160 ct_mem_ctrl_out\[31\]
*1161 ct_mem_ctrl_out\[3\]
*1162 ct_mem_ctrl_out\[4\]
*1163 ct_mem_ctrl_out\[5\]
*1164 ct_mem_ctrl_out\[6\]
*1165 ct_mem_ctrl_out\[7\]
*1166 ct_mem_ctrl_out\[8\]
*1167 ct_mem_ctrl_out\[9\]
*1168 ct_mem_ctrl_req
*1169 ct_mem_ctrl_vld
*1170 ct_mem_ctrl_we
*1171 ct_sram0_csb0
*1172 ct_sram0_dout0\[0\]
*1173 ct_sram0_dout0\[10\]
*1174 ct_sram0_dout0\[11\]
*1175 ct_sram0_dout0\[12\]
*1176 ct_sram0_dout0\[13\]
*1177 ct_sram0_dout0\[14\]
*1178 ct_sram0_dout0\[15\]
*1179 ct_sram0_dout0\[16\]
*1180 ct_sram0_dout0\[17\]
*1181 ct_sram0_dout0\[18\]
*1182 ct_sram0_dout0\[19\]
*1183 ct_sram0_dout0\[1\]
*1184 ct_sram0_dout0\[20\]
*1185 ct_sram0_dout0\[21\]
*1186 ct_sram0_dout0\[22\]
*1187 ct_sram0_dout0\[23\]
*1188 ct_sram0_dout0\[24\]
*1189 ct_sram0_dout0\[25\]
*1190 ct_sram0_dout0\[26\]
*1191 ct_sram0_dout0\[27\]
*1192 ct_sram0_dout0\[28\]
*1193 ct_sram0_dout0\[29\]
*1194 ct_sram0_dout0\[2\]
*1195 ct_sram0_dout0\[30\]
*1196 ct_sram0_dout0\[31\]
*1197 ct_sram0_dout0\[3\]
*1198 ct_sram0_dout0\[4\]
*1199 ct_sram0_dout0\[5\]
*1200 ct_sram0_dout0\[6\]
*1201 ct_sram0_dout0\[7\]
*1202 ct_sram0_dout0\[8\]
*1203 ct_sram0_dout0\[9\]
*1204 ct_sram0_web0
*1205 ct_sram1_csb0
*1206 ct_sram1_dout0\[0\]
*1207 ct_sram1_dout0\[10\]
*1208 ct_sram1_dout0\[11\]
*1209 ct_sram1_dout0\[12\]
*1210 ct_sram1_dout0\[13\]
*1211 ct_sram1_dout0\[14\]
*1212 ct_sram1_dout0\[15\]
*1213 ct_sram1_dout0\[16\]
*1214 ct_sram1_dout0\[17\]
*1215 ct_sram1_dout0\[18\]
*1216 ct_sram1_dout0\[19\]
*1217 ct_sram1_dout0\[1\]
*1218 ct_sram1_dout0\[20\]
*1219 ct_sram1_dout0\[21\]
*1220 ct_sram1_dout0\[22\]
*1221 ct_sram1_dout0\[23\]
*1222 ct_sram1_dout0\[24\]
*1223 ct_sram1_dout0\[25\]
*1224 ct_sram1_dout0\[26\]
*1225 ct_sram1_dout0\[27\]
*1226 ct_sram1_dout0\[28\]
*1227 ct_sram1_dout0\[29\]
*1228 ct_sram1_dout0\[2\]
*1229 ct_sram1_dout0\[30\]
*1230 ct_sram1_dout0\[31\]
*1231 ct_sram1_dout0\[3\]
*1232 ct_sram1_dout0\[4\]
*1233 ct_sram1_dout0\[5\]
*1234 ct_sram1_dout0\[6\]
*1235 ct_sram1_dout0\[7\]
*1236 ct_sram1_dout0\[8\]
*1237 ct_sram1_dout0\[9\]
*1238 ct_sram1_web0
*1239 ct_sram2_csb0
*1240 ct_sram2_dout0\[0\]
*1241 ct_sram2_dout0\[10\]
*1242 ct_sram2_dout0\[11\]
*1243 ct_sram2_dout0\[12\]
*1244 ct_sram2_dout0\[13\]
*1245 ct_sram2_dout0\[14\]
*1246 ct_sram2_dout0\[15\]
*1247 ct_sram2_dout0\[16\]
*1248 ct_sram2_dout0\[17\]
*1249 ct_sram2_dout0\[18\]
*1250 ct_sram2_dout0\[19\]
*1251 ct_sram2_dout0\[1\]
*1252 ct_sram2_dout0\[20\]
*1253 ct_sram2_dout0\[21\]
*1254 ct_sram2_dout0\[22\]
*1255 ct_sram2_dout0\[23\]
*1256 ct_sram2_dout0\[24\]
*1257 ct_sram2_dout0\[25\]
*1258 ct_sram2_dout0\[26\]
*1259 ct_sram2_dout0\[27\]
*1260 ct_sram2_dout0\[28\]
*1261 ct_sram2_dout0\[29\]
*1262 ct_sram2_dout0\[2\]
*1263 ct_sram2_dout0\[30\]
*1264 ct_sram2_dout0\[31\]
*1265 ct_sram2_dout0\[3\]
*1266 ct_sram2_dout0\[4\]
*1267 ct_sram2_dout0\[5\]
*1268 ct_sram2_dout0\[6\]